Circuit: * C:\Users\Mihai\Desktop\UTCN\AN3\SEM I\SCIAA\RaportFinal_PelinMihai\Compensare ordin 1\ProiectSCIAACircuit.asc

Warning: Multiple definitions of model "2scr375p" Type: BJT
Warning: Multiple definitions of model "bc857b" Type: BJT
Warning: Multiple definitions of model "bc847c" Type: BJT
Warning: Multiple definitions of model "bc847b" Type: BJT
Direct Newton iteration failed to find .op point.  (Use ".option noopiter" to skip.)
Starting Gmin stepping
Gmin = 10
Gmin = 1.07374
Gmin = 0.115292
Gmin = 0.0123794
Gmin = 0.00132923
Gmin = 0.000142725
Gmin = 1.5325e-005
Gmin = 1.6455e-006
Gmin = 1.76685e-007
Gmin = 1.89714e-008
Gmin = 2.03704e-009
Gmin = 2.18725e-010
Gmin = 2.34854e-011
Gmin = 2.52173e-012
Gmin = 2.70769e-013
Gmin = 0
Gmin stepping succeeded in finding the operating point.


Date: Wed Feb 25 01:19:24 2026
Total elapsed time: 0.115 seconds.

tnom = 27
temp = 150.1
method = trap
totiter = 4270
traniter = 0
tranpoints = 0
accept = 0
rejected = 0
matrix size = 12
fillins = 8
solver = Normal
Matrix Compiler1:     102 opcodes  0.2/0.2/[0.1]
Matrix Compiler2: 1.41 KB object code size  0.1/0.1/[0.1]

