Circuit: * C:\Users\Mihai\Desktop\UTCN\AN3\SEM I\SCIA\Proiect_Pelin_Mihai_2133\Etaj 4\Etaj 4.asc


Date: Wed Feb 04 22:00:13 2026
Total elapsed time: 0.063 seconds.

tnom = 27
temp = 27
method = trap
totiter = 95
traniter = 0
tranpoints = 0
accept = 0
rejected = 0
matrix size = 25
fillins = 34
solver = Normal

